LTspice 24.1.1 for Windows
Circuit: C:\Users\Liubo\Documents\SDU\Semester 2\Semester project\SPRO2\Hardware\LTSpice Simulations\Draft1.net
Start Time: Sat Apr  5 11:53:12 2025
solver = Normal
Maximum thread count: 20
tnom = 27
temp = 27
method = trap
Instance "u1:M5": Length shorter than recommended for a level 2 MOSFET.
Instance "u1:M6": Length shorter than recommended for a level 2 MOSFET.
Direct Newton iteration failed to find .op point.  (Use ".option noopiter" to skip.)
Starting Gmin stepping
Gmin = 10
Gmin = 1.07374
Gmin = 0.115292
Gmin = 0.0123794
Gmin = 0.00132923
Gmin = 0.000142725
Gmin = 1.5325e-05
Gmin = 1.6455e-06
Gmin = 1.76685e-07
Gmin = 1.89714e-08
Gmin = 2.03704e-09
Gmin = 2.18725e-10
Gmin = 2.34854e-11
Gmin = 2.52173e-12
Gmin = 2.70769e-13
Gmin = 0
Gmin stepping succeeded in finding the operating point.

Total elapsed time: 0.874 seconds.

Files loaded:
C:\Users\Liubo\Documents\SDU\Semester 2\Semester project\SPRO2\Hardware\LTSpice Simulations\Draft1.net
C:\Users\Liubo\AppData\Local\LTspice\lib\sub\ADI.lib

