LTspice 24.1.1 for Windows
Circuit: C:\Users\Liubo\Documents\SDU\Semester 2\Semester project\SPRO2\Hardware\LTSpice Simulations\Temperature sensor filter_LP.net
Start Time: Tue May 13 14:02:07 2025
solver = Normal
Maximum thread count: 20
tnom = 27
temp = 27
method = trap
.OP point found by inspection.
Total elapsed time: 0.065 seconds.

Files loaded:
C:\Users\Liubo\Documents\SDU\Semester 2\Semester project\SPRO2\Hardware\LTSpice Simulations\Temperature sensor filter_LP.net

